New Circuit.ckt24 bus1=SourceBus.1 pu= 1.032266 angle= 8.698888 basekV=132.79 phase=1 R1=0.63 X1=6.72 R0=4.07 X0=15.55 
New Vsource.Source_2 bus1=SourceBus.2 pu= 1.032221 angle= -111.299038 basekV=132.79 phase=1 R1=0.63 X1=6.72 R0=4.07 X0=15.55 
New Vsource.Source_3 bus1=SourceBus.3  pu= 1.032253 angle= 128.699904 basekV=132.79 phase=1 R1=0.63 X1=6.72 R0=4.07 X0=15.55 
