New Circuit.ckt24 bus1=SourceBus.1 pu= 1.030449 angle= 1.271875 basekV=132.79 phase=1 R1=0.63 X1=6.72 R0=4.07 X0=15.55 
New Vsource.Source_2 bus1=SourceBus.2 pu= 1.012517 angle= -117.923968 basekV=132.79 phase=1 R1=0.63 X1=6.72 R0=4.07 X0=15.55 
New Vsource.Source_3 bus1=SourceBus.3  pu= 1.033614 angle= 122.527964 basekV=132.79 phase=1 R1=0.63 X1=6.72 R0=4.07 X0=15.55 
