New Circuit.ckt24 bus1=SourceBus.1 pu= 1.011139 angle= 24.489005 basekV=132.79 phase=1 R1=0.63 X1=6.72 R0=4.07 X0=15.55 
New Vsource.Source_2 bus1=SourceBus.2 pu= 1.009393 angle= -95.662601 basekV=132.79 phase=1 R1=0.63 X1=6.72 R0=4.07 X0=15.55 
New Vsource.Source_3 bus1=SourceBus.3  pu= 1.007956 angle= 144.504605 basekV=132.79 phase=1 R1=0.63 X1=6.72 R0=4.07 X0=15.55 
