New Circuit.ckt24 bus1=SourceBus.1 pu= 1.048116 angle= -1.419115 basekV=132.79 phase=1 R1=0.63 X1=6.72 R0=4.07 X0=15.55 
New Vsource.Source_2 bus1=SourceBus.2 pu= 1.049909 angle= -121.535325 basekV=132.79 phase=1 R1=0.63 X1=6.72 R0=4.07 X0=15.55 
New Vsource.Source_3 bus1=SourceBus.3  pu= 1.047772 angle= 118.355158 basekV=132.79 phase=1 R1=0.63 X1=6.72 R0=4.07 X0=15.55 
