New Circuit.ckt24 bus1=SourceBus.1 pu= 0.951486 angle= -3.863987 basekV=132.79 phase=1 R1=0.63 X1=6.72 R0=4.07 X0=15.55 
New Vsource.Source_2 bus1=SourceBus.2 pu= 0.954074 angle= -123.857768 basekV=132.79 phase=1 R1=0.63 X1=6.72 R0=4.07 X0=15.55 
New Vsource.Source_3 bus1=SourceBus.3  pu= 0.952756 angle= 116.001894 basekV=132.79 phase=1 R1=0.63 X1=6.72 R0=4.07 X0=15.55 
