New Circuit.ckt24 bus1=SourceBus.1 pu= 1.050666 angle= 5.586412 basekV=132.79 phase=1 R1=0.63 X1=6.72 R0=4.07 X0=15.55 
New Vsource.Source_2 bus1=SourceBus.2 pu= 1.050642 angle= -114.400878 basekV=132.79 phase=1 R1=0.63 X1=6.72 R0=4.07 X0=15.55 
New Vsource.Source_3 bus1=SourceBus.3  pu= 1.050834 angle= 125.591908 basekV=132.79 phase=1 R1=0.63 X1=6.72 R0=4.07 X0=15.55 
