New Circuit.ckt24 bus1=SourceBus.1 pu= 0.943068 angle= -5.272128 basekV=132.79 phase=1 R1=0.63 X1=6.72 R0=4.07 X0=15.55 
New Vsource.Source_2 bus1=SourceBus.2 pu= 0.943930 angle= -125.209012 basekV=132.79 phase=1 R1=0.63 X1=6.72 R0=4.07 X0=15.55 
New Vsource.Source_3 bus1=SourceBus.3  pu= 0.944558 angle= 114.768175 basekV=132.79 phase=1 R1=0.63 X1=6.72 R0=4.07 X0=15.55 
