New Circuit.ckt24 bus1=SourceBus.1 pu= 1.022599 angle= -4.481239 basekV=132.79 phase=1 R1=0.63 X1=6.72 R0=4.07 X0=15.55 
New Vsource.Source_2 bus1=SourceBus.2 pu= 1.024532 angle= -124.589917 basekV=132.79 phase=1 R1=0.63 X1=6.72 R0=4.07 X0=15.55 
New Vsource.Source_3 bus1=SourceBus.3  pu= 1.022566 angle= 115.287804 basekV=132.79 phase=1 R1=0.63 X1=6.72 R0=4.07 X0=15.55 
