New Circuit.ckt24 bus1=SourceBus.1 pu= 0.950113 angle= -4.601768 basekV=132.79 phase=1 R1=0.63 X1=6.72 R0=4.07 X0=15.55 
New Vsource.Source_2 bus1=SourceBus.2 pu= 0.952183 angle= -124.611239 basekV=132.79 phase=1 R1=0.63 X1=6.72 R0=4.07 X0=15.55 
New Vsource.Source_3 bus1=SourceBus.3  pu= 0.951221 angle= 115.247300 basekV=132.79 phase=1 R1=0.63 X1=6.72 R0=4.07 X0=15.55 
