New Circuit.ckt13 bus1=SourceBus.1 angle=0 pu= 1.050000 basekV=132.79 phase=1 MVAsc3=20000 MVASC1=21000 
New Vsource.Source_2 bus1=SourceBus.2 angle=240 pu= 1.050000 basekV=132.79 phase=1 MVAsc3=20000 MVASC1=21000 
New Vsource.Source_3 bus1=SourceBus.3 angle=120 pu= 1.050000 basekV=132.79 phase=1 MVAsc3=20000 MVASC1=21000 
