New Circuit.ckt24 bus1=SourceBus.1 pu= 0.962108 angle= -6.808621 basekV=132.79 phase=1 R1=0.63 X1=6.72 R0=4.07 X0=15.55 
New Vsource.Source_2 bus1=SourceBus.2 pu= 0.948638 angle= -124.940482 basekV=132.79 phase=1 R1=0.63 X1=6.72 R0=4.07 X0=15.55 
New Vsource.Source_3 bus1=SourceBus.3  pu= 0.981991 angle= 114.700330 basekV=132.79 phase=1 R1=0.63 X1=6.72 R0=4.07 X0=15.55 
